Mass Spectrum: 2(10)-Pinen-3-one, (.+/-.)-
Formula: C10H14O
CAS: 30460-92-5
Molecular weight: 150
Origin: A.Swigar, R.Silverstein, Monoterpenes,1981
m/z	RELATIVE ABUNDANCE
15	420
16	1201
26	300
27	3073
28	510
29	1371
31	280
38	240
39	3193
40	721
41	6736
42	440
43	2372
44	861
45	160
50	260
51	981
52	400
53	9709
54	861
55	1161
56	200
57	581
58	160
63	140
65	681
66	601
67	1001
68	440
69	4244
70	520
71	360
73	240
77	1611
78	581
79	3353
80	1271
81	9999
82	1331
83	500
85	180
90	300
91	1221
92	420
93	961
94	741
95	621
96	180
97	320
105	360
106	280
107	3984
108	7597
109	1251
111	220
117	160
119	160
121	380
122	1061
123	200
135	2532
136	160
149	160
150	2993
151	180
